.SUBCKT IDEALOPAMP 1 2 99 50 28

E1 28 0 1 2 100MEG

.ENDS IDEALOPAMP
